LTspice 24.1.3 for Windows
Circuit: C:\Users\ericj\OneDrive\Documents\GitHub\EE-352-Project\LT SPICE\bandpass.net
Start Time: Tue Nov  4 15:52:14 2025
solver = Normal
Maximum thread count: 22
tnom = 27
temp = 27
method = trap
Direct Newton iteration for .op point succeeded.
Total elapsed time: 0.063 seconds.

Files loaded:
C:\Users\ericj\OneDrive\Documents\GitHub\EE-352-Project\LT SPICE\bandpass.net
C:\Users\ericj\AppData\Local\LTspice\lib\sub\ADI.lib

